@<TRIPOS>MOLECULE
*****
 140 147 0 0 0
SMALL
GASTEIGER

@<TRIPOS>ATOM
      1 N          -2.5714   -0.4601   -0.3542 N.ar    1  LIG1       -0.3060
      2 C          -1.2090   -0.2971   -0.3083 C.ar    1  LIG1        0.2618
      3 C          -0.8837    0.7694    0.4959 C.ar    1  LIG1        0.0784
      4 C          -2.1065    1.2888    0.9743 C.ar    1  LIG1        0.0784
      5 C          -3.1348    0.5190    0.4296 C.ar    1  LIG1        0.0717
      6 O          -0.4206   -1.0222   -0.8834 O.2     1  LIG1       -0.2669
      7 C          -1.7773    2.3550    1.7764 C.ar    1  LIG1        0.2618
      8 C           0.1450    1.5293    1.0471 C.ar    1  LIG1        0.0717
      9 N          -0.4150    2.5163    1.8263 N.ar    1  LIG1       -0.3060
     10 C           1.6064    1.2848    0.8562 C.ar    1  LIG1        0.0371
     11 C           2.2142    0.4759   -0.1197 C.ar    1  LIG1       -0.0449
     12 S           2.8446    1.8730    1.7988 S.2     1  LIG1       -0.0863
     13 C           3.6315    0.4185   -0.0147 C.ar    1  LIG1       -0.0458
     14 H           1.6885   -0.0506   -0.8925 H       1  LIG1        0.0630
     15 C           4.1360    1.1731    1.0440 C.ar    1  LIG1        0.0265
     16 H           4.2512   -0.1564   -0.6902 H       1  LIG1        0.0629
     17 S          10.6736    1.5189    2.5123 S.2     1  LIG1       -0.0927
     18 C           9.4852    0.9371    1.5184 C.ar    1  LIG1        0.0262
     19 C          11.9919    0.8366    1.7817 C.ar    1  LIG1       -0.0096
     20 C          10.1080    0.1467    0.5456 C.ar    1  LIG1       -0.0462
     21 C          11.5220    0.0889    0.6941 C.ar    1  LIG1       -0.0509
     22 H           9.5736   -0.3742   -0.2379 H       1  LIG1        0.0629
     23 H          12.1589   -0.4898    0.0391 H       1  LIG1        0.0626
     24 O          -2.5646    3.0806    2.3560 O.2     1  LIG1       -0.2669
     25 C           0.2555    3.5913    2.5766 C.3     1  LIG1        0.0296
     26 C           0.9242    4.6332    1.6312 C.3     1  LIG1       -0.0232
     27 H           0.9806    3.1379    3.2823 H       1  LIG1        0.0495
     28 H          -0.4740    4.1288    3.2178 H       1  LIG1        0.0495
     29 C          -0.1123    5.2686    0.6690 C.3     1  LIG1       -0.0514
     30 C           1.7490    5.6288    2.4993 C.3     1  LIG1       -0.0486
     31 H           1.6437    4.1006    0.9814 H       1  LIG1        0.0318
     32 C          -1.1553    6.1649    1.3433 C.3     1  LIG1       -0.0650
     33 H          -0.6425    4.4629    0.1182 H       1  LIG1        0.0266
     34 H           0.4146    5.8404   -0.1137 H       1  LIG1        0.0266
     35 H          -1.7643    5.5997    2.0748 H       1  LIG1        0.0230
     36 H          -1.8416    6.5702    0.5705 H       1  LIG1        0.0230
     37 H          -0.6742    7.0192    1.8593 H       1  LIG1        0.0230
     38 C           2.6861    6.6200    1.7747 C.3     1  LIG1       -0.0530
     39 H           2.4332    4.9871    3.0991 H       1  LIG1        0.0268
     40 H           1.1071    6.1733    3.2248 H       1  LIG1        0.0268
     41 C           2.0124    7.8816    1.2077 C.3     1  LIG1       -0.0559
     42 H           3.2746    6.0854    0.9976 H       1  LIG1        0.0265
     43 H           3.4013    6.9868    2.5450 H       1  LIG1        0.0265
     44 C           3.0520    8.8381    0.6282 C.3     1  LIG1       -0.0653
     45 H           1.4677    8.4044    2.0235 H       1  LIG1        0.0263
     46 H           1.2987    7.6539    0.4031 H       1  LIG1        0.0263
     47 H           3.7783    9.1447    1.4110 H       1  LIG1        0.0230
     48 H           2.5468    9.7477    0.2398 H       1  LIG1        0.0230
     49 H           3.5997    8.3516   -0.2071 H       1  LIG1        0.0230
     50 C          -3.2358   -1.5371   -1.1079 C.3     1  LIG1        0.0296
     51 C          -3.8620   -2.6102   -0.1695 C.3     1  LIG1       -0.0232
     52 H          -2.5033   -2.0593   -1.7626 H       1  LIG1        0.0495
     53 H          -3.9770   -1.0800   -1.7945 H       1  LIG1        0.0495
     54 C          -4.6802   -3.5943   -1.0528 C.3     1  LIG1       -0.0486
     55 C          -2.7157   -3.2498    0.6713 C.3     1  LIG1       -0.0514
     56 H          -4.5664   -2.1107    0.5212 H       1  LIG1        0.0318
     57 C          -3.1111   -4.3064    1.6960 C.3     1  LIG1       -0.0650
     58 H          -2.2330   -2.4349    1.2522 H       1  LIG1        0.0266
     59 H          -1.9474   -3.6910   -0.0009 H       1  LIG1        0.0266
     60 H          -2.2221   -4.5625    2.3107 H       1  LIG1        0.0230
     61 H          -3.4120   -5.2469    1.2018 H       1  LIG1        0.0230
     62 H          -3.9081   -3.9237    2.3680 H       1  LIG1        0.0230
     63 C          -5.7631   -4.3992   -0.3080 C.3     1  LIG1       -0.0530
     64 H          -3.9953   -4.2525   -1.6306 H       1  LIG1        0.0268
     65 H          -5.2566   -2.9841   -1.7841 H       1  LIG1        0.0268
     66 C          -6.5854   -5.2416   -1.2924 C.3     1  LIG1       -0.0559
     67 H          -6.4420   -3.6883    0.2130 H       1  LIG1        0.0265
     68 H          -5.3408   -5.0806    0.4429 H       1  LIG1        0.0265
     69 C          -7.6838   -6.0189   -0.5722 C.3     1  LIG1       -0.0653
     70 H          -5.9178   -5.9619   -1.8139 H       1  LIG1        0.0263
     71 H          -7.0580   -4.5800   -2.0510 H       1  LIG1        0.0263
     72 H          -7.2412   -6.7085    0.1779 H       1  LIG1        0.0230
     73 H          -8.2602   -6.6174   -1.3086 H       1  LIG1        0.0230
     74 H          -8.3787   -5.3195   -0.0602 H       1  LIG1        0.0230
     75 C          -4.5996    0.7375    0.6489 C.ar    1  LIG1        0.0371
     76 C          -5.1966    1.5489    1.6292 C.ar    1  LIG1       -0.0449
     77 C          -6.6180    1.5536    1.5848 C.ar    1  LIG1       -0.0458
     78 H          -4.6608    2.1080    2.3706 H       1  LIG1        0.0630
     79 C          -7.1417    0.7530    0.5698 C.ar    1  LIG1        0.0265
     80 H          -7.2273    2.1185    2.2779 H       1  LIG1        0.0629
     81 S          -5.8569    0.0823   -0.2268 S.2     1  LIG1       -0.0863
     82 C          -8.5618    0.5299    0.2709 C.ar    1  LIG1        0.0265
     83 S          -9.8487    1.1937    1.0801 S.2     1  LIG1       -0.0872
     84 C         -11.0892    0.5017    0.2228 C.ar    1  LIG1        0.0265
     85 C         -10.5089   -0.3029   -0.7648 C.ar    1  LIG1       -0.0458
     86 C          -9.0860   -0.2871   -0.7378 C.ar    1  LIG1       -0.0458
     87 H         -11.0794   -0.8807   -1.4797 H       1  LIG1        0.0629
     88 H          -8.4759   -0.8536   -1.4289 H       1  LIG1        0.0629
     89 C         -12.5245    0.7042    0.4604 C.ar    1  LIG1        0.0262
     90 C         -13.0987    1.5236    1.4388 C.ar    1  LIG1       -0.0462
     91 C         -14.5206    1.5201    1.4110 C.ar    1  LIG1       -0.0509
     92 H         -12.5245    2.1061    2.1472 H       1  LIG1        0.0629
     93 C         -15.0557    0.6961    0.4150 C.ar    1  LIG1       -0.0096
     94 H         -15.1275    2.0970    2.0965 H       1  LIG1        0.0626
     95 S         -13.7708    0.0081   -0.3868 S.2     1  LIG1       -0.0927
     96 C         -16.5226    0.5013    0.1566 C.3     1  LIG1       -0.0214
     97 C         -16.8252   -0.5225   -0.9465 C.3     1  LIG1       -0.0486
     98 H         -16.9648    1.4851   -0.1102 H       1  LIG1        0.0318
     99 H         -16.9892    0.1459    1.1013 H       1  LIG1        0.0318
    100 C         -18.3406   -0.6620   -1.1400 C.3     1  LIG1       -0.0528
    101 H         -16.4000   -1.5034   -0.6389 H       1  LIG1        0.0269
    102 H         -16.3581   -0.2118   -1.9073 H       1  LIG1        0.0269
    103 C         -18.6887   -1.8082   -2.0963 C.3     1  LIG1       -0.0533
    104 H         -18.7540    0.2983   -1.5205 H       1  LIG1        0.0265
    105 H         -18.8093   -0.8867   -0.1564 H       1  LIG1        0.0265
    106 C         -20.2100   -1.9367   -2.2495 C.3     1  LIG1       -0.0559
    107 H         -18.2841   -2.7515   -1.6679 H       1  LIG1        0.0265
    108 H         -18.2248   -1.6408   -3.0937 H       1  LIG1        0.0265
    109 C           5.5413    1.3195    1.4313 C.ar    1  LIG1        0.0265
    110 C           6.0345    2.0774    2.4994 C.ar    1  LIG1       -0.0458
    111 C           7.4480    2.0125    2.6255 C.ar    1  LIG1       -0.0458
    112 H           5.4088    2.6554    3.1666 H       1  LIG1        0.0629
    113 C           8.0518    1.2053    1.6547 C.ar    1  LIG1        0.0265
    114 H           7.9962    2.5370    3.3970 H       1  LIG1        0.0629
    115 S           6.8432    0.6097    0.6896 S.2     1  LIG1       -0.0872
    116 C          13.4014    0.9762    2.2618 C.3     1  LIG1       -0.0214
    117 C          14.3263    1.7714    1.3301 C.3     1  LIG1       -0.0486
    118 H          13.8213   -0.0349    2.4543 H       1  LIG1        0.0318
    119 H          13.3830    1.5216    3.2300 H       1  LIG1        0.0318
    120 C          14.5582    1.1225   -0.0414 C.3     1  LIG1       -0.0528
    121 H          15.2998    1.8246    1.8650 H       1  LIG1        0.0269
    122 H          13.9528    2.8103    1.1945 H       1  LIG1        0.0269
    123 C          15.7789    1.7519   -0.7243 C.3     1  LIG1       -0.0533
    124 H          13.6527    1.2113   -0.6785 H       1  LIG1        0.0265
    125 H          14.7913    0.0458    0.1135 H       1  LIG1        0.0265
    126 C          16.0945    1.0712   -2.0625 C.3     1  LIG1       -0.0559
    127 H          16.6349    1.5937   -0.0333 H       1  LIG1        0.0265
    128 H          15.6535    2.8482   -0.8779 H       1  LIG1        0.0265
    129 C          17.5526    1.3034   -2.4523 C.3     1  LIG1       -0.0653
    130 H          15.4003    1.4462   -2.8476 H       1  LIG1        0.0263
    131 H          15.9658   -0.0285   -1.9756 H       1  LIG1        0.0263
    132 H          17.7875    2.3849   -2.5257 H       1  LIG1        0.0230
    133 H          17.7691    0.8070   -3.4207 H       1  LIG1        0.0230
    134 H          18.2100    0.8429   -1.6802 H       1  LIG1        0.0230
    135 C         -20.5875   -3.1813   -3.0465 C.3     1  LIG1       -0.0653
    136 H         -20.6099   -1.0311   -2.7568 H       1  LIG1        0.0263
    137 H         -20.6832   -2.0200   -1.2470 H       1  LIG1        0.0263
    138 H         -20.1422   -3.1502   -4.0625 H       1  LIG1        0.0230
    139 H         -21.6928   -3.2418   -3.1372 H       1  LIG1        0.0230
    140 H         -20.2304   -4.0911   -2.5168 H       1  LIG1        0.0230
@<TRIPOS>BOND
     1     1     2   ar
     2     2     3   ar
     3     3     4    1
     4     1     5   ar
     5     5     4   ar
     6     2     6    2
     7     4     7   ar
     8     3     8   ar
     9     7     9   ar
    10     8     9   ar
    11     8    10    1
    12    10    11   ar
    13    10    12   ar
    14    11    13   ar
    15    11    14    1
    16    12    15   ar
    17    13    15   ar
    18    13    16    1
    19    17    19   ar
    20    18    20   ar
    21    18    17   ar
    22    20    21   ar
    23    20    22    1
    24    21    19   ar
    25    21    23    1
    26     7    24    2
    27     9    25    1
    28    25    26    1
    29    25    27    1
    30    25    28    1
    31    26    29    1
    32    26    30    1
    33    26    31    1
    34    29    32    1
    35    29    33    1
    36    29    34    1
    37    32    35    1
    38    32    36    1
    39    32    37    1
    40    30    38    1
    41    30    39    1
    42    30    40    1
    43    38    41    1
    44    38    42    1
    45    38    43    1
    46    41    44    1
    47    41    45    1
    48    41    46    1
    49    44    47    1
    50    44    48    1
    51    44    49    1
    52     1    50    1
    53    50    51    1
    54    50    52    1
    55    50    53    1
    56    51    54    1
    57    51    55    1
    58    51    56    1
    59    55    57    1
    60    55    58    1
    61    55    59    1
    62    57    60    1
    63    57    61    1
    64    57    62    1
    65    54    63    1
    66    54    64    1
    67    54    65    1
    68    63    66    1
    69    63    67    1
    70    63    68    1
    71    66    69    1
    72    66    70    1
    73    66    71    1
    74    69    72    1
    75    69    73    1
    76    69    74    1
    77     5    75    1
    78    75    76   ar
    79    76    77   ar
    80    76    78    1
    81    77    79   ar
    82    77    80    1
    83    79    81   ar
    84    81    75   ar
    85    79    82    1
    86    82    83   ar
    87    83    84   ar
    88    84    85   ar
    89    82    86   ar
    90    85    86   ar
    91    85    87    1
    92    86    88    1
    93    84    89    1
    94    89    90   ar
    95    90    91   ar
    96    90    92    1
    97    91    93   ar
    98    91    94    1
    99    93    95   ar
   100    95    89   ar
   101    93    96    1
   102    96    97    1
   103    96    98    1
   104    96    99    1
   105    97   100    1
   106    97   101    1
   107    97   102    1
   108   100   103    1
   109   100   104    1
   110   100   105    1
   111   103   106    1
   112   103   107    1
   113   103   108    1
   114    15   109    1
   115   109   110   ar
   116   110   111   ar
   117   110   112    1
   118   111   113   ar
   119   111   114    1
   120   109   115   ar
   121   113   115   ar
   122   113    18    1
   123    19   116    1
   124   116   117    1
   125   116   118    1
   126   116   119    1
   127   117   120    1
   128   117   121    1
   129   117   122    1
   130   120   123    1
   131   120   124    1
   132   120   125    1
   133   123   126    1
   134   123   127    1
   135   123   128    1
   136   126   129    1
   137   126   130    1
   138   126   131    1
   139   129   132    1
   140   129   133    1
   141   129   134    1
   142   106   135    1
   143   106   136    1
   144   106   137    1
   145   135   138    1
   146   135   139    1
   147   135   140    1
